Version 4
SHEET 1 1184 800
WIRE -656 -304 -736 -304
WIRE -544 -304 -576 -304
WIRE -512 -304 -544 -304
WIRE -416 -304 -432 -304
WIRE -496 -240 -496 -256
WIRE -640 -224 -736 -224
WIRE -544 -224 -544 -304
WIRE -544 -224 -560 -224
WIRE -528 -224 -544 -224
WIRE -416 -208 -416 -304
WIRE -416 -208 -464 -208
WIRE -320 -208 -416 -208
WIRE -528 -192 -544 -192
WIRE -544 -160 -544 -192
WIRE 608 64 576 64
WIRE 768 64 688 64
WIRE 304 144 208 144
WIRE 576 144 576 64
WIRE 576 144 512 144
WIRE 640 144 576 144
WIRE -960 160 -960 112
WIRE -512 160 -512 112
WIRE -448 160 -448 112
WIRE -384 160 -384 112
WIRE -320 160 -320 112
WIRE 768 160 768 64
WIRE 768 160 704 160
WIRE 784 160 768 160
WIRE 880 160 864 160
WIRE 304 176 208 176
WIRE 560 176 512 176
WIRE 640 176 608 176
WIRE -960 256 -960 240
WIRE -512 256 -512 240
WIRE -448 256 -448 240
WIRE -384 256 -384 240
WIRE -320 256 -320 240
WIRE 608 256 608 176
WIRE 608 256 560 256
WIRE 608 272 608 256
WIRE -512 448 -512 400
WIRE -512 544 -512 528
FLAG 608 272 0
FLAG -448 256 0
FLAG -320 256 0
FLAG -512 256 0
FLAG -384 256 0
FLAG -512 112 +5
FLAG 672 128 +5
FLAG -448 112 -5
FLAG 672 192 -5
FLAG -384 112 vg2
FLAG 208 144 +2
FLAG -320 112 vd
FLAG 208 176 vd
FLAG 880 160 0
FLAG -960 256 0
FLAG -960 112 vg1
FLAG -544 -160 0
FLAG -320 -208 vg
FLAG -736 -304 vg1
FLAG -736 -224 vg2
FLAG -496 -256 +5
FLAG -496 -176 -5
FLAG -512 544 0
FLAG -512 400 +2
SYMBOL AutoGenerated\\VTEAMtri 400 160 R0
WINDOW 39 -135 531 Top 2
SYMATTR SpiceLine ""
SYMATTR InstName U1
SYMATTR Value GEM
SYMBOL res 704 48 R90
WINDOW 0 0 56 VBottom 2
WINDOW 3 32 56 VTop 2
SYMATTR InstName R1
SYMATTR Value 1k
SYMBOL OpAmps\\OP07 672 96 R0
SYMATTR InstName U2
SYMBOL voltage -512 144 R0
WINDOW 123 0 0 Left 0
WINDOW 39 0 0 Left 0
SYMATTR InstName V1
SYMATTR Value 5
SYMBOL voltage -448 144 R0
WINDOW 123 0 0 Left 0
WINDOW 39 0 0 Left 0
SYMATTR InstName V2
SYMATTR Value -5
SYMBOL voltage -384 144 R0
WINDOW 123 0 0 Left 0
WINDOW 39 0 0 Left 0
SYMATTR InstName V3
SYMATTR Value PULSE(0 -1.5 0 0.0001 0.0001 0.1 0.2 10)
SYMBOL voltage -320 144 R0
WINDOW 123 0 0 Left 0
WINDOW 39 0 0 Left 0
SYMATTR InstName V4
SYMATTR Value PWL(0 1 2 6)
SYMBOL res 880 144 R90
WINDOW 0 0 56 VBottom 2
WINDOW 3 32 56 VTop 2
SYMATTR InstName R2
SYMATTR Value 1k
SYMBOL res 544 160 R0
SYMATTR InstName R3
SYMATTR Value 1
SYMBOL voltage -960 144 R0
WINDOW 123 0 0 Left 0
WINDOW 39 0 0 Left 0
SYMATTR InstName V5
SYMATTR Value PULSE(0 2 2 0.0001 0.0001 0.1 0.2 10)
SYMBOL OpAmps\\OP07 -496 -272 R0
SYMATTR InstName U3
SYMBOL res -544 -240 R90
WINDOW 0 0 56 VBottom 2
WINDOW 3 32 56 VTop 2
SYMATTR InstName R4
SYMATTR Value 1k
SYMBOL res -560 -320 R90
WINDOW 0 0 56 VBottom 2
WINDOW 3 32 56 VTop 2
SYMATTR InstName R5
SYMATTR Value 1k
SYMBOL res -416 -320 R90
WINDOW 0 0 56 VBottom 2
WINDOW 3 32 56 VTop 2
SYMATTR InstName R6
SYMATTR Value 1k
SYMBOL voltage -512 432 R0
WINDOW 123 0 0 Left 0
WINDOW 39 0 0 Left 0
SYMATTR InstName V6
SYMATTR Value 2
TEXT -744 760 Left 2 !.include idealdiode.sub
TEXT -992 784 Left 2 !.tran 4
TEXT -744 784 Left 2 !.include GEM.sub
